demos/grid-stories/data/smartds/Substation.dss
Clear

New Circuit.substation_p1uhs19_69 bus1=p1uhs19_69 pu=1.0 basekV=69.0 R1=1e-05 X1=1e-05 R0=1e-05 X0=1e-05

Redirect LineCodes.dss
Redirect p1uhs19_1247--p1udt14631/LineCodes.dss
Redirect p1uhs19_1247--p1udt17263/LineCodes.dss
Redirect Lines.dss
Redirect p1uhs19_1247--p1udt14631/Lines.dss
Redirect p1uhs19_1247--p1udt17263/Lines.dss
Redirect Transformers.dss
Redirect p1uhs19_1247--p1udt14631/Transformers.dss
Redirect p1uhs19_1247--p1udt17263/Transformers.dss
Redirect Regulators.dss
Redirect LoadShapes.dss
Redirect p1uhs19_1247--p1udt14631/Loads.dss
Redirect p1uhs19_1247--p1udt17263/Loads.dss
Redirect p1uhs19_1247--p1udt14631/Capacitors.dss
Redirect p1uhs19_1247--p1udt17263/Capacitors.dss
new monitor.m1 element=Line.sb8_p1uhs19_1247_403 mode=0
new monitor.m2 element=Line.sb8_p1uhs19_1247_403 mode=1
new energymeter.m3 Line.sb8_p1uhs19_1247_403

Set Voltagebases=[0.12, 0.208, 0.48, 7.2, 12.47, 69.0]

Calcvoltagebases

Buscoords Buscoords.dss
set maxcontroliter=50

Solve mode=yearly stepsize=15m number=35040
Export monitors m1
Plot monitor object= m1 channels=(7 9 11 )
Export monitors m2
Plot monitor object= m2 channels=(1 3 5 )
Plot Profile Phases=All
